<additional><route edges="-24" id="r_0" /><calibrator edge="-24" id="ca_0" pos="0.00"><flow begin="0" end="60" route="r_0" type="DEFAULT_VEHTYPE" vehsPerHour="1500.0" /><flow begin="60" end="120" route="r_0" type="DEFAULT_VEHTYPE" vehsPerHour="1450.0" /><flow begin="120" end="180" route="r_0" type="DEFAULT_VEHTYPE" vehsPerHour="1450.0" /><flow begin="180" end="240" route="r_0" type="DEFAULT_VEHTYPE" vehsPerHour="1450.0" /><flow begin="240" end="300" route="r_0" type="DEFAULT_VEHTYPE" vehsPerHour="1550.0" /><flow begin="300" end="360" route="r_0" type="DEFAULT_VEHTYPE" vehsPerHour="1550.0" /><flow begin="360" end="420" route="r_0" type="DEFAULT_VEHTYPE" vehsPerHour="1600.0" /><flow begin="420" end="480" route="r_0" type="DEFAULT_VEHTYPE" vehsPerHour="1650.0" /><flow begin="480" end="540" route="r_0" type="DEFAULT_VEHTYPE" vehsPerHour="1600.0" /><flow begin="540" end="600" route="r_0" type="DEFAULT_VEHTYPE" vehsPerHour="1700.0" /><flow begin="600" end="660" route="r_0" type="DEFAULT_VEHTYPE" vehsPerHour="1650.0" /><flow begin="660" end="720" route="r_0" type="DEFAULT_VEHTYPE" vehsPerHour="1750.0" /><flow begin="720" end="780" route="r_0" type="DEFAULT_VEHTYPE" vehsPerHour="2050.0" /></calibrator><route edges="-11" id="r_1" /><calibrator edge="-11" id="ca_1" pos="0.00"><flow begin="0" end="60" route="r_1" type="DEFAULT_VEHTYPE" vehsPerHour="1500.0" /><flow begin="60" end="120" route="r_1" type="DEFAULT_VEHTYPE" vehsPerHour="1450.0" /><flow begin="120" end="180" route="r_1" type="DEFAULT_VEHTYPE" vehsPerHour="1450.0" /><flow begin="180" end="240" route="r_1" type="DEFAULT_VEHTYPE" vehsPerHour="1450.0" /><flow begin="240" end="300" route="r_1" type="DEFAULT_VEHTYPE" vehsPerHour="1550.0" /><flow begin="300" end="360" route="r_1" type="DEFAULT_VEHTYPE" vehsPerHour="1550.0" /><flow begin="360" end="420" route="r_1" type="DEFAULT_VEHTYPE" vehsPerHour="1600.0" /><flow begin="420" end="480" route="r_1" type="DEFAULT_VEHTYPE" vehsPerHour="1650.0" /><flow begin="480" end="540" route="r_1" type="DEFAULT_VEHTYPE" vehsPerHour="1600.0" /><flow begin="540" end="600" route="r_1" type="DEFAULT_VEHTYPE" vehsPerHour="1700.0" /><flow begin="600" end="660" route="r_1" type="DEFAULT_VEHTYPE" vehsPerHour="1650.0" /><flow begin="660" end="720" route="r_1" type="DEFAULT_VEHTYPE" vehsPerHour="1750.0" /><flow begin="720" end="780" route="r_1" type="DEFAULT_VEHTYPE" vehsPerHour="2050.0" /></calibrator><route edges="-0" id="r_2" /><calibrator edge="-0" id="ca_2" pos="0.00"><flow begin="0" end="60" route="r_2" type="DEFAULT_VEHTYPE" vehsPerHour="1500.0" /><flow begin="60" end="120" route="r_2" type="DEFAULT_VEHTYPE" vehsPerHour="1450.0" /><flow begin="120" end="180" route="r_2" type="DEFAULT_VEHTYPE" vehsPerHour="1450.0" /><flow begin="180" end="240" route="r_2" type="DEFAULT_VEHTYPE" vehsPerHour="1450.0" /><flow begin="240" end="300" route="r_2" type="DEFAULT_VEHTYPE" vehsPerHour="1550.0" /><flow begin="300" end="360" route="r_2" type="DEFAULT_VEHTYPE" vehsPerHour="1550.0" /><flow begin="360" end="420" route="r_2" type="DEFAULT_VEHTYPE" vehsPerHour="1600.0" /><flow begin="420" end="480" route="r_2" type="DEFAULT_VEHTYPE" vehsPerHour="1650.0" /><flow begin="480" end="540" route="r_2" type="DEFAULT_VEHTYPE" vehsPerHour="1600.0" /><flow begin="540" end="600" route="r_2" type="DEFAULT_VEHTYPE" vehsPerHour="1700.0" /><flow begin="600" end="660" route="r_2" type="DEFAULT_VEHTYPE" vehsPerHour="1650.0" /><flow begin="660" end="720" route="r_2" type="DEFAULT_VEHTYPE" vehsPerHour="1750.0" /><flow begin="720" end="780" route="r_2" type="DEFAULT_VEHTYPE" vehsPerHour="2050.0" /></calibrator><route edges="5" id="r_3" /><calibrator edge="5" id="ca_3" pos="0.00"><flow begin="0" end="60" route="r_3" type="DEFAULT_VEHTYPE" vehsPerHour="1500.0" /><flow begin="60" end="120" route="r_3" type="DEFAULT_VEHTYPE" vehsPerHour="1450.0" /><flow begin="120" end="180" route="r_3" type="DEFAULT_VEHTYPE" vehsPerHour="1450.0" /><flow begin="180" end="240" route="r_3" type="DEFAULT_VEHTYPE" vehsPerHour="1450.0" /><flow begin="240" end="300" route="r_3" type="DEFAULT_VEHTYPE" vehsPerHour="1550.0" /><flow begin="300" end="360" route="r_3" type="DEFAULT_VEHTYPE" vehsPerHour="1550.0" /><flow begin="360" end="420" route="r_3" type="DEFAULT_VEHTYPE" vehsPerHour="1600.0" /><flow begin="420" end="480" route="r_3" type="DEFAULT_VEHTYPE" vehsPerHour="1650.0" /><flow begin="480" end="540" route="r_3" type="DEFAULT_VEHTYPE" vehsPerHour="1600.0" /><flow begin="540" end="600" route="r_3" type="DEFAULT_VEHTYPE" vehsPerHour="1700.0" /><flow begin="600" end="660" route="r_3" type="DEFAULT_VEHTYPE" vehsPerHour="1650.0" /><flow begin="660" end="720" route="r_3" type="DEFAULT_VEHTYPE" vehsPerHour="1750.0" /><flow begin="720" end="780" route="r_3" type="DEFAULT_VEHTYPE" vehsPerHour="2050.0" /></calibrator><route edges="6" id="r_4" /><calibrator edge="6" id="ca_4" pos="0.00"><flow begin="0" end="60" route="r_4" type="DEFAULT_VEHTYPE" vehsPerHour="1500.0" /><flow begin="60" end="120" route="r_4" type="DEFAULT_VEHTYPE" vehsPerHour="1450.0" /><flow begin="120" end="180" route="r_4" type="DEFAULT_VEHTYPE" vehsPerHour="1450.0" /><flow begin="180" end="240" route="r_4" type="DEFAULT_VEHTYPE" vehsPerHour="1450.0" /><flow begin="240" end="300" route="r_4" type="DEFAULT_VEHTYPE" vehsPerHour="1550.0" /><flow begin="300" end="360" route="r_4" type="DEFAULT_VEHTYPE" vehsPerHour="1550.0" /><flow begin="360" end="420" route="r_4" type="DEFAULT_VEHTYPE" vehsPerHour="1600.0" /><flow begin="420" end="480" route="r_4" type="DEFAULT_VEHTYPE" vehsPerHour="1650.0" /><flow begin="480" end="540" route="r_4" type="DEFAULT_VEHTYPE" vehsPerHour="1600.0" /><flow begin="540" end="600" route="r_4" type="DEFAULT_VEHTYPE" vehsPerHour="1700.0" /><flow begin="600" end="660" route="r_4" type="DEFAULT_VEHTYPE" vehsPerHour="1650.0" /><flow begin="660" end="720" route="r_4" type="DEFAULT_VEHTYPE" vehsPerHour="1750.0" /><flow begin="720" end="780" route="r_4" type="DEFAULT_VEHTYPE" vehsPerHour="2050.0" /></calibrator><route edges="12" id="r_5" /><calibrator edge="12" id="ca_5" pos="0.00"><flow begin="0" end="60" route="r_5" type="DEFAULT_VEHTYPE" vehsPerHour="1500.0" /><flow begin="60" end="120" route="r_5" type="DEFAULT_VEHTYPE" vehsPerHour="1450.0" /><flow begin="120" end="180" route="r_5" type="DEFAULT_VEHTYPE" vehsPerHour="1450.0" /><flow begin="180" end="240" route="r_5" type="DEFAULT_VEHTYPE" vehsPerHour="1450.0" /><flow begin="240" end="300" route="r_5" type="DEFAULT_VEHTYPE" vehsPerHour="1550.0" /><flow begin="300" end="360" route="r_5" type="DEFAULT_VEHTYPE" vehsPerHour="1550.0" /><flow begin="360" end="420" route="r_5" type="DEFAULT_VEHTYPE" vehsPerHour="1600.0" /><flow begin="420" end="480" route="r_5" type="DEFAULT_VEHTYPE" vehsPerHour="1650.0" /><flow begin="480" end="540" route="r_5" type="DEFAULT_VEHTYPE" vehsPerHour="1600.0" /><flow begin="540" end="600" route="r_5" type="DEFAULT_VEHTYPE" vehsPerHour="1700.0" /><flow begin="600" end="660" route="r_5" type="DEFAULT_VEHTYPE" vehsPerHour="1650.0" /><flow begin="660" end="720" route="r_5" type="DEFAULT_VEHTYPE" vehsPerHour="1750.0" /><flow begin="720" end="780" route="r_5" type="DEFAULT_VEHTYPE" vehsPerHour="2050.0" /></calibrator><route edges="13" id="r_6" /><calibrator edge="13" id="ca_6" pos="0.00"><flow begin="0" end="60" route="r_6" type="DEFAULT_VEHTYPE" vehsPerHour="1500.0" /><flow begin="60" end="120" route="r_6" type="DEFAULT_VEHTYPE" vehsPerHour="1450.0" /><flow begin="120" end="180" route="r_6" type="DEFAULT_VEHTYPE" vehsPerHour="1450.0" /><flow begin="180" end="240" route="r_6" type="DEFAULT_VEHTYPE" vehsPerHour="1450.0" /><flow begin="240" end="300" route="r_6" type="DEFAULT_VEHTYPE" vehsPerHour="1550.0" /><flow begin="300" end="360" route="r_6" type="DEFAULT_VEHTYPE" vehsPerHour="1550.0" /><flow begin="360" end="420" route="r_6" type="DEFAULT_VEHTYPE" vehsPerHour="1600.0" /><flow begin="420" end="480" route="r_6" type="DEFAULT_VEHTYPE" vehsPerHour="1650.0" /><flow begin="480" end="540" route="r_6" type="DEFAULT_VEHTYPE" vehsPerHour="1600.0" /><flow begin="540" end="600" route="r_6" type="DEFAULT_VEHTYPE" vehsPerHour="1700.0" /><flow begin="600" end="660" route="r_6" type="DEFAULT_VEHTYPE" vehsPerHour="1650.0" /><flow begin="660" end="720" route="r_6" type="DEFAULT_VEHTYPE" vehsPerHour="1750.0" /><flow begin="720" end="780" route="r_6" type="DEFAULT_VEHTYPE" vehsPerHour="2050.0" /></calibrator><route edges="15" id="r_7" /><calibrator edge="15" id="ca_7" pos="0.00"><flow begin="0" end="60" route="r_7" type="DEFAULT_VEHTYPE" vehsPerHour="1500.0" /><flow begin="60" end="120" route="r_7" type="DEFAULT_VEHTYPE" vehsPerHour="1450.0" /><flow begin="120" end="180" route="r_7" type="DEFAULT_VEHTYPE" vehsPerHour="1450.0" /><flow begin="180" end="240" route="r_7" type="DEFAULT_VEHTYPE" vehsPerHour="1450.0" /><flow begin="240" end="300" route="r_7" type="DEFAULT_VEHTYPE" vehsPerHour="1550.0" /><flow begin="300" end="360" route="r_7" type="DEFAULT_VEHTYPE" vehsPerHour="1550.0" /><flow begin="360" end="420" route="r_7" type="DEFAULT_VEHTYPE" vehsPerHour="1600.0" /><flow begin="420" end="480" route="r_7" type="DEFAULT_VEHTYPE" vehsPerHour="1650.0" /><flow begin="480" end="540" route="r_7" type="DEFAULT_VEHTYPE" vehsPerHour="1600.0" /><flow begin="540" end="600" route="r_7" type="DEFAULT_VEHTYPE" vehsPerHour="1700.0" /><flow begin="600" end="660" route="r_7" type="DEFAULT_VEHTYPE" vehsPerHour="1650.0" /><flow begin="660" end="720" route="r_7" type="DEFAULT_VEHTYPE" vehsPerHour="1750.0" /><flow begin="720" end="780" route="r_7" type="DEFAULT_VEHTYPE" vehsPerHour="2050.0" /></calibrator><route edges="16" id="r_8" /><calibrator edge="16" id="ca_8" pos="0.00"><flow begin="0" end="60" route="r_8" type="DEFAULT_VEHTYPE" vehsPerHour="1500.0" /><flow begin="60" end="120" route="r_8" type="DEFAULT_VEHTYPE" vehsPerHour="1450.0" /><flow begin="120" end="180" route="r_8" type="DEFAULT_VEHTYPE" vehsPerHour="1450.0" /><flow begin="180" end="240" route="r_8" type="DEFAULT_VEHTYPE" vehsPerHour="1450.0" /><flow begin="240" end="300" route="r_8" type="DEFAULT_VEHTYPE" vehsPerHour="1550.0" /><flow begin="300" end="360" route="r_8" type="DEFAULT_VEHTYPE" vehsPerHour="1550.0" /><flow begin="360" end="420" route="r_8" type="DEFAULT_VEHTYPE" vehsPerHour="1600.0" /><flow begin="420" end="480" route="r_8" type="DEFAULT_VEHTYPE" vehsPerHour="1650.0" /><flow begin="480" end="540" route="r_8" type="DEFAULT_VEHTYPE" vehsPerHour="1600.0" /><flow begin="540" end="600" route="r_8" type="DEFAULT_VEHTYPE" vehsPerHour="1700.0" /><flow begin="600" end="660" route="r_8" type="DEFAULT_VEHTYPE" vehsPerHour="1650.0" /><flow begin="660" end="720" route="r_8" type="DEFAULT_VEHTYPE" vehsPerHour="1750.0" /><flow begin="720" end="780" route="r_8" type="DEFAULT_VEHTYPE" vehsPerHour="2050.0" /></calibrator><route edges="21" id="r_9" /><calibrator edge="21" id="ca_9" pos="0.00"><flow begin="0" end="60" route="r_9" type="DEFAULT_VEHTYPE" vehsPerHour="1500.0" /><flow begin="60" end="120" route="r_9" type="DEFAULT_VEHTYPE" vehsPerHour="1450.0" /><flow begin="120" end="180" route="r_9" type="DEFAULT_VEHTYPE" vehsPerHour="1450.0" /><flow begin="180" end="240" route="r_9" type="DEFAULT_VEHTYPE" vehsPerHour="1450.0" /><flow begin="240" end="300" route="r_9" type="DEFAULT_VEHTYPE" vehsPerHour="1550.0" /><flow begin="300" end="360" route="r_9" type="DEFAULT_VEHTYPE" vehsPerHour="1550.0" /><flow begin="360" end="420" route="r_9" type="DEFAULT_VEHTYPE" vehsPerHour="1600.0" /><flow begin="420" end="480" route="r_9" type="DEFAULT_VEHTYPE" vehsPerHour="1650.0" /><flow begin="480" end="540" route="r_9" type="DEFAULT_VEHTYPE" vehsPerHour="1600.0" /><flow begin="540" end="600" route="r_9" type="DEFAULT_VEHTYPE" vehsPerHour="1700.0" /><flow begin="600" end="660" route="r_9" type="DEFAULT_VEHTYPE" vehsPerHour="1650.0" /><flow begin="660" end="720" route="r_9" type="DEFAULT_VEHTYPE" vehsPerHour="1750.0" /><flow begin="720" end="780" route="r_9" type="DEFAULT_VEHTYPE" vehsPerHour="2050.0" /></calibrator><route edges="22" id="r_10" /><calibrator edge="22" id="ca_10" pos="0.00"><flow begin="0" end="60" route="r_10" type="DEFAULT_VEHTYPE" vehsPerHour="1500.0" /><flow begin="60" end="120" route="r_10" type="DEFAULT_VEHTYPE" vehsPerHour="1450.0" /><flow begin="120" end="180" route="r_10" type="DEFAULT_VEHTYPE" vehsPerHour="1450.0" /><flow begin="180" end="240" route="r_10" type="DEFAULT_VEHTYPE" vehsPerHour="1450.0" /><flow begin="240" end="300" route="r_10" type="DEFAULT_VEHTYPE" vehsPerHour="1550.0" /><flow begin="300" end="360" route="r_10" type="DEFAULT_VEHTYPE" vehsPerHour="1550.0" /><flow begin="360" end="420" route="r_10" type="DEFAULT_VEHTYPE" vehsPerHour="1600.0" /><flow begin="420" end="480" route="r_10" type="DEFAULT_VEHTYPE" vehsPerHour="1650.0" /><flow begin="480" end="540" route="r_10" type="DEFAULT_VEHTYPE" vehsPerHour="1600.0" /><flow begin="540" end="600" route="r_10" type="DEFAULT_VEHTYPE" vehsPerHour="1700.0" /><flow begin="600" end="660" route="r_10" type="DEFAULT_VEHTYPE" vehsPerHour="1650.0" /><flow begin="660" end="720" route="r_10" type="DEFAULT_VEHTYPE" vehsPerHour="1750.0" /><flow begin="720" end="780" route="r_10" type="DEFAULT_VEHTYPE" vehsPerHour="2050.0" /></calibrator></additional>