<?xml version="1.0" encoding="UTF-8"?>

<!-- generated on 2023-04-04 14:29:12 by Eclipse SUMO netedit Version 1.15.0
-->

<additional xmlns:xsi="http://www.w3.org/2001/XMLSchema-instance" xsi:noNamespaceSchemaLocation="http://sumo.dlr.de/xsd/additional_file.xsd">
    <!-- Other additionals -->
    <rerouter id="rr_0" edges="6" pos="408.29,333.73">
        <interval begin="0.00" end="3600.00">
            <destProbReroute id="5" probability="1.00"/>
        </interval>
    </rerouter>
    <rerouter id="rr_1" edges="5" pos="284.69,395.11">
        <interval begin="0.00" end="3600.00">
            <destProbReroute id="4" probability="1.00"/>
        </interval>
    </rerouter>
    <rerouter id="rr_10" edges="-7#1 13" pos="348.28,87.65">
        <interval begin="0.00" end="3600.00">
            <destProbReroute id="16" probability="1.00"/>
        </interval>
    </rerouter>
    <rerouter id="rr_11" edges="16" pos="219.32,266.83">
        <interval begin="0.00" end="3600.00">
            <destProbReroute id="15" probability="0.40"/>
            <destProbReroute id="-11" probability="0.60"/>
        </interval>
    </rerouter>
    <rerouter id="rr_12" edges="-11" pos="272.77,378.82">
        <interval begin="0.00" end="3600.00">
            <destProbReroute id="4" probability="1.00"/>
        </interval>
    </rerouter>
    <rerouter id="rr_13" edges="15" pos="26.40,371.01">
        <interval begin="0.00" end="3600.00">
            <destProbReroute id="12" probability="1.00"/>
        </interval>
    </rerouter>
    <rerouter id="rr_14" edges="12" pos="200.53,432.32">
        <interval begin="0.00" end="3600.00">
            <destProbReroute id="22" probability="1.00"/>
        </interval>
    </rerouter>
    <rerouter id="rr_2" edges="4" pos="226.55,434.53">
        <interval begin="0.00" end="3600.00">
            <destProbReroute id="22" probability="1.00"/>
        </interval>
    </rerouter>
    <rerouter id="rr_3" edges="22" pos="434.76,436.64">
        <interval begin="0.00" end="3600.00">
            <destProbReroute id="25" probability="0.40"/>
            <destProbReroute id="21" probability="0.60"/>
        </interval>
    </rerouter>
    <rerouter id="rr_4" edges="25" pos="386.95,349.24">
        <interval begin="0.00" end="3600.00">
            <destProbReroute id="5" probability="1.00"/>
        </interval>
    </rerouter>
    <rerouter id="rr_5" edges="21" pos="623.22,333.21">
        <interval begin="0.00" end="3600.00">
            <destProbReroute id="-0" probability="0.50"/>
            <destProbReroute id="14" probability="0.50"/>
        </interval>
    </rerouter>
    <rerouter id="rr_6" edges="14" pos="579.39,242.46">
        <interval begin="0.00" end="3600.00">
            <destProbReroute id="6" probability="0.50"/>
            <destProbReroute id="13" probability="0.50"/>
        </interval>
    </rerouter>
    <rerouter id="rr_7" edges="-0" pos="672.61,191.51">
        <interval begin="0.00" end="3600.00">
            <destProbReroute id="3" probability="0.50"/>
            <destProbReroute id="-24" probability="0.50"/>
        </interval>
    </rerouter>
    <rerouter id="rr_8" edges="3" pos="602.18,230.39">
        <interval begin="0.00" end="3600.00">
            <destProbReroute id="6" probability="1.00"/>
        </interval>
    </rerouter>
    <rerouter id="rr_9" edges="-24" pos="351.22,67.07">
        <interval begin="0.00" end="3600.00">
            <destProbReroute id="-7#1" probability="1.00"/>
        </interval>
    </rerouter>
</additional>
