<?xml version="1.0" encoding="UTF-8"?>

<!-- generated on 2022-11-07 03:14:19 by Eclipse SUMO netedit Version 1.14.1
-->

<data xmlns:xsi="http://www.w3.org/2001/XMLSchema-instance" xsi:noNamespaceSchemaLocation="http://sumo.dlr.de/xsd/datamode_file.xsd">
    <interval id="all" begin="0.00" end="3600.00">
        <edge id="22" from="0" to="10"/>
        <edge id="4" from="0" to="10"/>
        <edge id="5" from="0" to="10"/>
        <edge id="25" from="0" to="10"/>
        <edge id="21" from="0" to="10"/>
        <edge id="-0" from="0" to="10"/>
        <edge id="3" from="0" to="10"/>
        <edge id="14" from="0" to="10"/>
        <edge id="6" from="0" to="10"/>
        <edge id="13" from="0" to="10"/>
        <edge id="-24" from="0" to="10"/>
        <edge id="16" from="0" to="10"/>
        <edge id="15" from="0" to="10"/>
        <edge id="12" from="0" to="10"/>
        <edge id="-11" from="0" to="10"/>
        <edge id="-7#1" from="0" to="10"/>
    </interval>
</data>
