<?xml version="1.0" encoding="UTF-8"?>

<!-- generated on 2022-10-23 22:59:33 by Eclipse SUMO GUI Version 1.14.1
-->

<configuration xmlns:xsi="http://www.w3.org/2001/XMLSchema-instance" xsi:noNamespaceSchemaLocation="http://sumo.dlr.de/xsd/sumoConfiguration.xsd">

    <input>
        <net-file value="net/G16_realworld.net.xml"/>
        <route-files value="rou/G16_realworld.rou.xml"/>
        <additional-files value="add/G16_realworld_pickapath.add.xml"/>
    </input>

</configuration>
