<?xml version="1.0" encoding="UTF-8"?>

<!-- generated on 2022-10-22 00:57:14 by Eclipse SUMO GUI Version 1.14.1
-->

<configuration xmlns:xsi="http://www.w3.org/2001/XMLSchema-instance" xsi:noNamespaceSchemaLocation="http://sumo.dlr.de/xsd/sumoConfiguration.xsd">

    <input>
        <net-file value="net/G16_Basic.net.xml"/>
        <route-files value="rou/G16_Basic.rou.xml"/>
    </input>

</configuration>
