<?xml version="1.0" encoding="UTF-8"?>

<!-- generated on 2023-04-04 14:29:58 by Eclipse SUMO GUI Version 1.15.0
-->

<configuration xmlns:xsi="http://www.w3.org/2001/XMLSchema-instance" xsi:noNamespaceSchemaLocation="http://sumo.dlr.de/xsd/sumoConfiguration.xsd">

    <input>
        <net-file value="net/G16_trafficsim.net.xml"/>
        <route-files value="rou/G16_lightenedsim.rou.xml"/>
        <additional-files value="add/G16_lightenedsim.add.xml"/>
    </input>

</configuration>
