<?xml version="1.0" encoding="UTF-8"?>

<!-- generated on 2022-10-28 10:59:00 by Eclipse SUMO netedit Version 1.14.1
-->

<routes xmlns:xsi="http://www.w3.org/2001/XMLSchema-instance" xsi:noNamespaceSchemaLocation="http://sumo.dlr.de/xsd/routes_file.xsd">
    <!-- VTypes -->
    <vTypeDistribution id="distr_1">
        <vType id="slow" speedFactor="normc(0.80,0.00)"/>
        <vType id="fast" speedFactor="normc(1.20,0.00)"/>
        <vType id="normal"/>
    </vTypeDistribution>
    <vType id="t_0" minGap="1.50" lcCooperative="0.5" lcImpatience="1" sigma="1"/>
    <!-- Vehicles, persons and containers (sorted by depart) -->
    <flow id="f_0" begin="0.00" departSpeed="5.55" route="small_loop" end="3600.00" vehsPerHour="1800.00"/>
</routes>
