<?xml version="1.0" encoding="UTF-8"?>

<!-- generated on 2022-10-22 00:56:53 by Eclipse SUMO netedit Version 1.14.1
-->

<routes xmlns:xsi="http://www.w3.org/2001/XMLSchema-instance" xsi:noNamespaceSchemaLocation="http://sumo.dlr.de/xsd/routes_file.xsd">
    <!-- Routes -->
    <route id="Inner_Loop_1" edges="-11 4 22 25 5 4 22 21 14 6 5 4 22 21 14 13 16" color="blue"/>
    <route id="Inner_Loop_2" edges="3 6 5 4 22 21 14 13 16 -11 4 22 21 -0 -24 -7#1" color="red"/>
    <route id="Outer_Loop" edges="15 12 22 21 -0 -24 -7#1 16" color="green"/>
    <!-- Vehicles, persons and containers (sorted by depart) -->
    <vehicle id="v_0" depart="0.00" route="Inner_Loop_2"/>
    <vehicle id="v_1" depart="0.00" route="Inner_Loop_2"/>
    <flow id="f_0" begin="0.00" route="Inner_Loop_2" end="3600.00" vehsPerHour="1800.00"/>
    <flow id="f_1" begin="0.00" route="Inner_Loop_2" end="3600.00" vehsPerHour="1800.00"/>
</routes>
