<?xml version="1.0" encoding="UTF-8"?>

<!-- generated on 2022-10-23 00:45:21 by Eclipse SUMO netedit Version 1.14.1
-->

<routes xmlns:xsi="http://www.w3.org/2001/XMLSchema-instance" xsi:noNamespaceSchemaLocation="http://sumo.dlr.de/xsd/routes_file.xsd">
    <!-- Routes -->
    <route id="inner_loop_1" edges="-11 4 22 21 14 13 16" color="green"/>
    <route id="outer_loop" edges="12 22 21 -0 -24 -7#1 16 15"/>
    <!-- Vehicles, persons and containers (sorted by depart) -->
    <flow id="f_0" begin="0.00" departSpeed="7.00" route="outer_loop" end="120.00" probability="0.25"/>
    <flow id="f_1" begin="0.00" departSpeed="6.00" color="green" route="inner_loop_1" end="120.00" period="exp(2.00)"/>
</routes>
