<?xml version="1.0" ?>
<additional>
    <route edges="-24" id="r_0"/>
    <calibrator pos="0.00" id="ca_0" edge="-24">
        <flow vehsPerHour="1450.0" route="r_0" begin="0" end="60" type="DEFAULT_VEHTYPE"/>
        <flow vehsPerHour="1450.0" route="r_0" begin="60" end="120" type="DEFAULT_VEHTYPE"/>
        <flow vehsPerHour="1450.0" route="r_0" begin="120" end="180" type="DEFAULT_VEHTYPE"/>
        <flow vehsPerHour="1450.0" route="r_0" begin="180" end="240" type="DEFAULT_VEHTYPE"/>
        <flow vehsPerHour="1550.0" route="r_0" begin="240" end="300" type="DEFAULT_VEHTYPE"/>
        <flow vehsPerHour="1550.0" route="r_0" begin="300" end="360" type="DEFAULT_VEHTYPE"/>
        <flow vehsPerHour="1600.0" route="r_0" begin="360" end="420" type="DEFAULT_VEHTYPE"/>
        <flow vehsPerHour="1650.0" route="r_0" begin="420" end="480" type="DEFAULT_VEHTYPE"/>
        <flow vehsPerHour="1600.0" route="r_0" begin="480" end="540" type="DEFAULT_VEHTYPE"/>
        <flow vehsPerHour="1700.0" route="r_0" begin="540" end="600" type="DEFAULT_VEHTYPE"/>
        <flow vehsPerHour="1650.0" route="r_0" begin="600" end="660" type="DEFAULT_VEHTYPE"/>
        <flow vehsPerHour="1750.0" route="r_0" begin="660" end="720" type="DEFAULT_VEHTYPE"/>
        <flow vehsPerHour="2050.0" route="r_0" begin="720" end="780" type="DEFAULT_VEHTYPE"/>
    </calibrator>
    <route edges="-11" id="r_1"/>
    <calibrator pos="0.00" id="ca_1" edge="-11">
        <flow vehsPerHour="1450.0" route="r_1" begin="0" end="60" type="DEFAULT_VEHTYPE"/>
        <flow vehsPerHour="1450.0" route="r_1" begin="60" end="120" type="DEFAULT_VEHTYPE"/>
        <flow vehsPerHour="1450.0" route="r_1" begin="120" end="180" type="DEFAULT_VEHTYPE"/>
        <flow vehsPerHour="1450.0" route="r_1" begin="180" end="240" type="DEFAULT_VEHTYPE"/>
        <flow vehsPerHour="1550.0" route="r_1" begin="240" end="300" type="DEFAULT_VEHTYPE"/>
        <flow vehsPerHour="1550.0" route="r_1" begin="300" end="360" type="DEFAULT_VEHTYPE"/>
        <flow vehsPerHour="1600.0" route="r_1" begin="360" end="420" type="DEFAULT_VEHTYPE"/>
        <flow vehsPerHour="1650.0" route="r_1" begin="420" end="480" type="DEFAULT_VEHTYPE"/>
        <flow vehsPerHour="1600.0" route="r_1" begin="480" end="540" type="DEFAULT_VEHTYPE"/>
        <flow vehsPerHour="1700.0" route="r_1" begin="540" end="600" type="DEFAULT_VEHTYPE"/>
        <flow vehsPerHour="1650.0" route="r_1" begin="600" end="660" type="DEFAULT_VEHTYPE"/>
        <flow vehsPerHour="1750.0" route="r_1" begin="660" end="720" type="DEFAULT_VEHTYPE"/>
        <flow vehsPerHour="2050.0" route="r_1" begin="720" end="780" type="DEFAULT_VEHTYPE"/>
    </calibrator>
    <route edges="-0" id="r_2"/>
    <calibrator pos="0.00" id="ca_2" edge="-0">
        <flow vehsPerHour="1450.0" route="r_2" begin="0" end="60" type="DEFAULT_VEHTYPE"/>
        <flow vehsPerHour="1450.0" route="r_2" begin="60" end="120" type="DEFAULT_VEHTYPE"/>
        <flow vehsPerHour="1450.0" route="r_2" begin="120" end="180" type="DEFAULT_VEHTYPE"/>
        <flow vehsPerHour="1450.0" route="r_2" begin="180" end="240" type="DEFAULT_VEHTYPE"/>
        <flow vehsPerHour="1550.0" route="r_2" begin="240" end="300" type="DEFAULT_VEHTYPE"/>
        <flow vehsPerHour="1550.0" route="r_2" begin="300" end="360" type="DEFAULT_VEHTYPE"/>
        <flow vehsPerHour="1600.0" route="r_2" begin="360" end="420" type="DEFAULT_VEHTYPE"/>
        <flow vehsPerHour="1650.0" route="r_2" begin="420" end="480" type="DEFAULT_VEHTYPE"/>
        <flow vehsPerHour="1600.0" route="r_2" begin="480" end="540" type="DEFAULT_VEHTYPE"/>
        <flow vehsPerHour="1700.0" route="r_2" begin="540" end="600" type="DEFAULT_VEHTYPE"/>
        <flow vehsPerHour="1650.0" route="r_2" begin="600" end="660" type="DEFAULT_VEHTYPE"/>
        <flow vehsPerHour="1750.0" route="r_2" begin="660" end="720" type="DEFAULT_VEHTYPE"/>
        <flow vehsPerHour="2050.0" route="r_2" begin="720" end="780" type="DEFAULT_VEHTYPE"/>
    </calibrator>
    <route edges="5" id="r_3"/>
    <calibrator pos="0.00" id="ca_3" edge="5">
        <flow vehsPerHour="1450.0" route="r_3" begin="0" end="60" type="DEFAULT_VEHTYPE"/>
        <flow vehsPerHour="1450.0" route="r_3" begin="60" end="120" type="DEFAULT_VEHTYPE"/>
        <flow vehsPerHour="1450.0" route="r_3" begin="120" end="180" type="DEFAULT_VEHTYPE"/>
        <flow vehsPerHour="1450.0" route="r_3" begin="180" end="240" type="DEFAULT_VEHTYPE"/>
        <flow vehsPerHour="1550.0" route="r_3" begin="240" end="300" type="DEFAULT_VEHTYPE"/>
        <flow vehsPerHour="1550.0" route="r_3" begin="300" end="360" type="DEFAULT_VEHTYPE"/>
        <flow vehsPerHour="1600.0" route="r_3" begin="360" end="420" type="DEFAULT_VEHTYPE"/>
        <flow vehsPerHour="1650.0" route="r_3" begin="420" end="480" type="DEFAULT_VEHTYPE"/>
        <flow vehsPerHour="1600.0" route="r_3" begin="480" end="540" type="DEFAULT_VEHTYPE"/>
        <flow vehsPerHour="1700.0" route="r_3" begin="540" end="600" type="DEFAULT_VEHTYPE"/>
        <flow vehsPerHour="1650.0" route="r_3" begin="600" end="660" type="DEFAULT_VEHTYPE"/>
        <flow vehsPerHour="1750.0" route="r_3" begin="660" end="720" type="DEFAULT_VEHTYPE"/>
        <flow vehsPerHour="2050.0" route="r_3" begin="720" end="780" type="DEFAULT_VEHTYPE"/>
    </calibrator>
    <route edges="6" id="r_4"/>
    <calibrator pos="0.00" id="ca_4" edge="6">
        <flow vehsPerHour="1450.0" route="r_4" begin="0" end="60" type="DEFAULT_VEHTYPE"/>
        <flow vehsPerHour="1450.0" route="r_4" begin="60" end="120" type="DEFAULT_VEHTYPE"/>
        <flow vehsPerHour="1450.0" route="r_4" begin="120" end="180" type="DEFAULT_VEHTYPE"/>
        <flow vehsPerHour="1450.0" route="r_4" begin="180" end="240" type="DEFAULT_VEHTYPE"/>
        <flow vehsPerHour="1550.0" route="r_4" begin="240" end="300" type="DEFAULT_VEHTYPE"/>
        <flow vehsPerHour="1550.0" route="r_4" begin="300" end="360" type="DEFAULT_VEHTYPE"/>
        <flow vehsPerHour="1600.0" route="r_4" begin="360" end="420" type="DEFAULT_VEHTYPE"/>
        <flow vehsPerHour="1650.0" route="r_4" begin="420" end="480" type="DEFAULT_VEHTYPE"/>
        <flow vehsPerHour="1600.0" route="r_4" begin="480" end="540" type="DEFAULT_VEHTYPE"/>
        <flow vehsPerHour="1700.0" route="r_4" begin="540" end="600" type="DEFAULT_VEHTYPE"/>
        <flow vehsPerHour="1650.0" route="r_4" begin="600" end="660" type="DEFAULT_VEHTYPE"/>
        <flow vehsPerHour="1750.0" route="r_4" begin="660" end="720" type="DEFAULT_VEHTYPE"/>
        <flow vehsPerHour="2050.0" route="r_4" begin="720" end="780" type="DEFAULT_VEHTYPE"/>
    </calibrator>
    <route edges="12" id="r_5"/>
    <calibrator pos="0.00" id="ca_5" edge="12">
        <flow vehsPerHour="1450.0" route="r_5" begin="0" end="60" type="DEFAULT_VEHTYPE"/>
        <flow vehsPerHour="1450.0" route="r_5" begin="60" end="120" type="DEFAULT_VEHTYPE"/>
        <flow vehsPerHour="1450.0" route="r_5" begin="120" end="180" type="DEFAULT_VEHTYPE"/>
        <flow vehsPerHour="1450.0" route="r_5" begin="180" end="240" type="DEFAULT_VEHTYPE"/>
        <flow vehsPerHour="1550.0" route="r_5" begin="240" end="300" type="DEFAULT_VEHTYPE"/>
        <flow vehsPerHour="1550.0" route="r_5" begin="300" end="360" type="DEFAULT_VEHTYPE"/>
        <flow vehsPerHour="1600.0" route="r_5" begin="360" end="420" type="DEFAULT_VEHTYPE"/>
        <flow vehsPerHour="1650.0" route="r_5" begin="420" end="480" type="DEFAULT_VEHTYPE"/>
        <flow vehsPerHour="1600.0" route="r_5" begin="480" end="540" type="DEFAULT_VEHTYPE"/>
        <flow vehsPerHour="1700.0" route="r_5" begin="540" end="600" type="DEFAULT_VEHTYPE"/>
        <flow vehsPerHour="1650.0" route="r_5" begin="600" end="660" type="DEFAULT_VEHTYPE"/>
        <flow vehsPerHour="1750.0" route="r_5" begin="660" end="720" type="DEFAULT_VEHTYPE"/>
        <flow vehsPerHour="2050.0" route="r_5" begin="720" end="780" type="DEFAULT_VEHTYPE"/>
    </calibrator>
    <route edges="13" id="r_6"/>
    <calibrator pos="0.00" id="ca_6" edge="13">
        <flow vehsPerHour="1450.0" route="r_6" begin="0" end="60" type="DEFAULT_VEHTYPE"/>
        <flow vehsPerHour="1450.0" route="r_6" begin="60" end="120" type="DEFAULT_VEHTYPE"/>
        <flow vehsPerHour="1450.0" route="r_6" begin="120" end="180" type="DEFAULT_VEHTYPE"/>
        <flow vehsPerHour="1450.0" route="r_6" begin="180" end="240" type="DEFAULT_VEHTYPE"/>
        <flow vehsPerHour="1550.0" route="r_6" begin="240" end="300" type="DEFAULT_VEHTYPE"/>
        <flow vehsPerHour="1550.0" route="r_6" begin="300" end="360" type="DEFAULT_VEHTYPE"/>
        <flow vehsPerHour="1600.0" route="r_6" begin="360" end="420" type="DEFAULT_VEHTYPE"/>
        <flow vehsPerHour="1650.0" route="r_6" begin="420" end="480" type="DEFAULT_VEHTYPE"/>
        <flow vehsPerHour="1600.0" route="r_6" begin="480" end="540" type="DEFAULT_VEHTYPE"/>
        <flow vehsPerHour="1700.0" route="r_6" begin="540" end="600" type="DEFAULT_VEHTYPE"/>
        <flow vehsPerHour="1650.0" route="r_6" begin="600" end="660" type="DEFAULT_VEHTYPE"/>
        <flow vehsPerHour="1750.0" route="r_6" begin="660" end="720" type="DEFAULT_VEHTYPE"/>
        <flow vehsPerHour="2050.0" route="r_6" begin="720" end="780" type="DEFAULT_VEHTYPE"/>
    </calibrator>
    <route edges="15" id="r_7"/>
    <calibrator pos="0.00" id="ca_7" edge="15">
        <flow vehsPerHour="1450.0" route="r_7" begin="0" end="60" type="DEFAULT_VEHTYPE"/>
        <flow vehsPerHour="1450.0" route="r_7" begin="60" end="120" type="DEFAULT_VEHTYPE"/>
        <flow vehsPerHour="1450.0" route="r_7" begin="120" end="180" type="DEFAULT_VEHTYPE"/>
        <flow vehsPerHour="1450.0" route="r_7" begin="180" end="240" type="DEFAULT_VEHTYPE"/>
        <flow vehsPerHour="1550.0" route="r_7" begin="240" end="300" type="DEFAULT_VEHTYPE"/>
        <flow vehsPerHour="1550.0" route="r_7" begin="300" end="360" type="DEFAULT_VEHTYPE"/>
        <flow vehsPerHour="1600.0" route="r_7" begin="360" end="420" type="DEFAULT_VEHTYPE"/>
        <flow vehsPerHour="1650.0" route="r_7" begin="420" end="480" type="DEFAULT_VEHTYPE"/>
        <flow vehsPerHour="1600.0" route="r_7" begin="480" end="540" type="DEFAULT_VEHTYPE"/>
        <flow vehsPerHour="1700.0" route="r_7" begin="540" end="600" type="DEFAULT_VEHTYPE"/>
        <flow vehsPerHour="1650.0" route="r_7" begin="600" end="660" type="DEFAULT_VEHTYPE"/>
        <flow vehsPerHour="1750.0" route="r_7" begin="660" end="720" type="DEFAULT_VEHTYPE"/>
        <flow vehsPerHour="2050.0" route="r_7" begin="720" end="780" type="DEFAULT_VEHTYPE"/>
    </calibrator>
    <route edges="16" id="r_8"/>
    <calibrator pos="0.00" id="ca_8" edge="16">
        <flow vehsPerHour="1450.0" route="r_8" begin="0" end="60" type="DEFAULT_VEHTYPE"/>
        <flow vehsPerHour="1450.0" route="r_8" begin="60" end="120" type="DEFAULT_VEHTYPE"/>
        <flow vehsPerHour="1450.0" route="r_8" begin="120" end="180" type="DEFAULT_VEHTYPE"/>
        <flow vehsPerHour="1450.0" route="r_8" begin="180" end="240" type="DEFAULT_VEHTYPE"/>
        <flow vehsPerHour="1550.0" route="r_8" begin="240" end="300" type="DEFAULT_VEHTYPE"/>
        <flow vehsPerHour="1550.0" route="r_8" begin="300" end="360" type="DEFAULT_VEHTYPE"/>
        <flow vehsPerHour="1600.0" route="r_8" begin="360" end="420" type="DEFAULT_VEHTYPE"/>
        <flow vehsPerHour="1650.0" route="r_8" begin="420" end="480" type="DEFAULT_VEHTYPE"/>
        <flow vehsPerHour="1600.0" route="r_8" begin="480" end="540" type="DEFAULT_VEHTYPE"/>
        <flow vehsPerHour="1700.0" route="r_8" begin="540" end="600" type="DEFAULT_VEHTYPE"/>
        <flow vehsPerHour="1650.0" route="r_8" begin="600" end="660" type="DEFAULT_VEHTYPE"/>
        <flow vehsPerHour="1750.0" route="r_8" begin="660" end="720" type="DEFAULT_VEHTYPE"/>
        <flow vehsPerHour="2050.0" route="r_8" begin="720" end="780" type="DEFAULT_VEHTYPE"/>
    </calibrator>
    <route edges="21" id="r_9"/>
    <calibrator pos="0.00" id="ca_9" edge="21">
        <flow vehsPerHour="1450.0" route="r_9" begin="0" end="60" type="DEFAULT_VEHTYPE"/>
        <flow vehsPerHour="1450.0" route="r_9" begin="60" end="120" type="DEFAULT_VEHTYPE"/>
        <flow vehsPerHour="1450.0" route="r_9" begin="120" end="180" type="DEFAULT_VEHTYPE"/>
        <flow vehsPerHour="1450.0" route="r_9" begin="180" end="240" type="DEFAULT_VEHTYPE"/>
        <flow vehsPerHour="1550.0" route="r_9" begin="240" end="300" type="DEFAULT_VEHTYPE"/>
        <flow vehsPerHour="1550.0" route="r_9" begin="300" end="360" type="DEFAULT_VEHTYPE"/>
        <flow vehsPerHour="1600.0" route="r_9" begin="360" end="420" type="DEFAULT_VEHTYPE"/>
        <flow vehsPerHour="1650.0" route="r_9" begin="420" end="480" type="DEFAULT_VEHTYPE"/>
        <flow vehsPerHour="1600.0" route="r_9" begin="480" end="540" type="DEFAULT_VEHTYPE"/>
        <flow vehsPerHour="1700.0" route="r_9" begin="540" end="600" type="DEFAULT_VEHTYPE"/>
        <flow vehsPerHour="1650.0" route="r_9" begin="600" end="660" type="DEFAULT_VEHTYPE"/>
        <flow vehsPerHour="1750.0" route="r_9" begin="660" end="720" type="DEFAULT_VEHTYPE"/>
        <flow vehsPerHour="2050.0" route="r_9" begin="720" end="780" type="DEFAULT_VEHTYPE"/>
    </calibrator>
    <route edges="22" id="r_10"/>
    <calibrator pos="0.00" id="ca_10" edge="22">
        <flow vehsPerHour="1450.0" route="r_10" begin="0" end="60" type="DEFAULT_VEHTYPE"/>
        <flow vehsPerHour="1450.0" route="r_10" begin="60" end="120" type="DEFAULT_VEHTYPE"/>
        <flow vehsPerHour="1450.0" route="r_10" begin="120" end="180" type="DEFAULT_VEHTYPE"/>
        <flow vehsPerHour="1450.0" route="r_10" begin="180" end="240" type="DEFAULT_VEHTYPE"/>
        <flow vehsPerHour="1550.0" route="r_10" begin="240" end="300" type="DEFAULT_VEHTYPE"/>
        <flow vehsPerHour="1550.0" route="r_10" begin="300" end="360" type="DEFAULT_VEHTYPE"/>
        <flow vehsPerHour="1600.0" route="r_10" begin="360" end="420" type="DEFAULT_VEHTYPE"/>
        <flow vehsPerHour="1650.0" route="r_10" begin="420" end="480" type="DEFAULT_VEHTYPE"/>
        <flow vehsPerHour="1600.0" route="r_10" begin="480" end="540" type="DEFAULT_VEHTYPE"/>
        <flow vehsPerHour="1700.0" route="r_10" begin="540" end="600" type="DEFAULT_VEHTYPE"/>
        <flow vehsPerHour="1650.0" route="r_10" begin="600" end="660" type="DEFAULT_VEHTYPE"/>
        <flow vehsPerHour="1750.0" route="r_10" begin="660" end="720" type="DEFAULT_VEHTYPE"/>
        <flow vehsPerHour="2050.0" route="r_10" begin="720" end="780" type="DEFAULT_VEHTYPE"/>
    </calibrator>
</additional>
