<?xml version="1.0" encoding="UTF-8"?>

<!-- generated on 2023-05-19 11:25:55 by Eclipse SUMO GUI Version 1.15.0
-->

<configuration xmlns:xsi="http://www.w3.org/2001/XMLSchema-instance" xsi:noNamespaceSchemaLocation="http://sumo.dlr.de/xsd/sumoConfiguration.xsd">

    <input>
        <net-file value="net/G16_trafficsim.net.xml"/>
        <route-files value="rou/calib_test.rou.xml"/>
        <additional-files value="add/calib_test.add.xml"/>
    </input>

</configuration>
