<?xml version="1.0" encoding="UTF-8"?>

<!-- generated on 2023-04-12 13:28:38 by Eclipse SUMO netedit Version 1.15.0
-->

<routes xmlns:xsi="http://www.w3.org/2001/XMLSchema-instance" xsi:noNamespaceSchemaLocation="http://sumo.dlr.de/xsd/routes_file.xsd">
    <!-- VTypes -->
    <vType id="DEFAULT_VEHTYPE" minGap="7.00"/>
</routes>
